Circuit: * C:\Users\Ole Eberson\Documents\SplitKeyboard\KoalaKeeb\LTspice\transistor_sim.asc

Direct Newton iteration for .op point succeeded.

Date: Sun Aug 13 16:15:18 2023
Total elapsed time: 0.113 seconds.

tnom = 27
temp = 27
method = modified trap
totiter = 6544
traniter = 6510
tranpoints = 2851
accept = 2404
rejected = 447
matrix size = 19
fillins = 4
solver = Normal
Avg thread counts: 1.4/2.0/2.0/1.4
Matrix Compiler1: 1.03 KB object code size  0.7/0.2/[0.2]
Matrix Compiler2: off  [0.2]/0.3/0.3

