Circuit: * C:\Users\Ole Eberson\Documents\SplitKeyboard\KoalaKeeb\LTspice\transistor_sim_2.asc

Direct Newton iteration for .op point succeeded.

Date: Sat Aug 12 10:08:23 2023
Total elapsed time: 0.102 seconds.

tnom = 27
temp = 27
method = modified trap
totiter = 9112
traniter = 9102
tranpoints = 4552
accept = 4038
rejected = 514
matrix size = 3
fillins = 0
solver = Normal
Avg thread counts: 1.3/1.6/1.6/1.3
Matrix Compiler1: 122 bytes object code size  0.1/0.1/[0.1]
Matrix Compiler2: off  [0.1]/0.1/0.1

